!!>>>>>>>>>>>>>>>>>>>>>>>>>>>>>>>>>>>>>>>>>>>>>>>>>>>>>>>>>>>>>>>>>>>>>>
!! NEMO/OCE  Configuration namelist : overwrite default values defined in SHARED/namelist_ref
!!>>>>>>>>>>>>>>>>>>>>>>>>>>>>>>>>>>>>>>>>>>>>>>>>>>>>>>>>>>>>>>>>>>>>>>
!!             ORCA2 - ICE - PISCES configuration                     !!
!!======================================================================
!!              ***  Domain & Run management namelists  ***           !!
!!                                                                    !!
!!   namrun       parameters of the run
!!   namdom       space and time domain
!!   namcfg       parameters of the configuration                       (default: user defined GYRE)
!!   namwad       Wetting and drying                                    (default: OFF)
!!   namtsd       data: temperature & salinity                          (default: OFF)
!!   namcrs       coarsened grid (for outputs and/or TOP)               (ln_crs =T)
!!   namc1d       1D configuration options                              ("key_c1d")
!!   namc1d_dyndmp 1D newtonian damping applied on currents             ("key_c1d")
!!   namc1d_uvd   1D data (currents)                                    ("key_c1d")
!!======================================================================
!
!-----------------------------------------------------------------------
&namrun        !   parameters of the run
!-----------------------------------------------------------------------
   cn_exp      =  _AUTO_
   nn_date0    =  _AUTO_   !  date at nit_0000 (format yyyymmdd) used if ln_rstart=F or (ln_rstart=T and nn_rstctl=0 or 1)
   nn_leapy    =  _AUTO_   !  Leap year calendar (1) or not (0)
   nn_it000    =  _AUTO_
   nn_itend    =  _AUTO_
   nn_stock    =  _AUTO_
   ln_mskland  = .true.
   ln_clobber  = .true.
   ln_cfmeta   = .true.   !  output additional data to netCDF files required for compliance with the CF metadata standard
/
!-----------------------------------------------------------------------
&namdom        !   time and space domain
!-----------------------------------------------------------------------
   ln_linssh   = .true.   !  =T  linear free surface  ==>>  model level are fixed in time
   !
   rn_Dt       = 21600.     !  time step for the dynamics and tracer
/
!-----------------------------------------------------------------------
&namcfg        !   parameters of the configuration                      (default: use namusr_def in namelist_cfg)
!-----------------------------------------------------------------------
   ln_read_cfg = .true.    !  (=T) read the domain configuration file
      cn_domcfg = "domain_cfg.nc"    ! domain configuration filename
      !
      ln_closea    = .false.    !  F => suppress closed seas (defined by closea_mask field) 
      !                         !       from the bathymetry at runtime.
/
!-----------------------------------------------------------------------
&namtile        !   parameters of the tiling
!-----------------------------------------------------------------------
/
!-----------------------------------------------------------------------
&namtsd        !    Temperature & Salinity Data  (init/dmp)             (default: OFF)
!-----------------------------------------------------------------------
/
!-----------------------------------------------------------------------
&namwad        !   Wetting and Drying (WaD)                             (default: OFF)
!-----------------------------------------------------------------------
/
!-----------------------------------------------------------------------
&namcrs        !   coarsened grid (for outputs and/or TOP)              (ln_crs =T)
!-----------------------------------------------------------------------
/
!-----------------------------------------------------------------------
&namc1d        !   1D configuration options                             (ln_c1d =T default: PAPA station)
!-----------------------------------------------------------------------
/
!-----------------------------------------------------------------------
&namc1d_dyndmp !   U & V newtonian damping                              (ln_c1d =T default: OFF)
!-----------------------------------------------------------------------
/
!-----------------------------------------------------------------------
&namc1d_uvd    !   data: U & V currents                                 (ln_c1d =T default: OFF)
!-----------------------------------------------------------------------
/
!!======================================================================
!!            ***  Surface Boundary Condition namelists  ***          !!
!!                                                                    !!
!!   namsbc          surface boundary condition manager                 (default: NO selection)
!!   namsbc_flx      flux               formulation                     (ln_flx     =T)
!!   namsbc_blk      Bulk formulae formulation                          (ln_blk     =T)
!!   namsbc_cpl      CouPLed            formulation                     ("key_oasis3" )
!!   namsbc_sas      Stand-Alone Surface module                         (SAS_SRC  only)
!!   namsbc_iif      Ice-IF: use observed ice cover                     (nn_ice = 1   )
!!   namtra_qsr      penetrative solar radiation                        (ln_traqsr  =T)
!!   namsbc_ssr      sea surface restoring term (for T and/or S)        (ln_ssr     =T)
!!   namsbc_rnf      river runoffs                                      (ln_rnf     =T)
!!   namsbc_apr      Atmospheric Pressure                               (ln_apr_dyn =T)
!!   namsbc_isf      ice shelf melting/freezing                         (ln_isfcav  =T : read (ln_read_cfg=T) or set or usr_def_zgr )
!!   namsbc_iscpl    coupling option between land ice model and ocean   (ln_isfcav  =T)
!!   namsbc_wave     external fields from wave model                    (ln_wave    =T)
!!   namberg         iceberg floats                                     (ln_icebergs=T)
!!======================================================================
!
!-----------------------------------------------------------------------
&namsbc        !   Surface Boundary Condition manager                   (default: NO selection)
!-----------------------------------------------------------------------
   nn_fsbc     = 1         !  frequency of SBC module call
                           !     (also = the frequency of sea-ice & iceberg model call)
                     ! Type of air-sea fluxes 
   ln_usr      = .true.   !  user defined formulation                  (T => check usrdef_sbc)
   ln_traqsr   = .true.    !  Light penetration in the ocean            (T => fill namtra_qsr)
/
!-----------------------------------------------------------------------
&namsbc_flx    !   surface boundary condition : flux formulation        (ln_flx =T)
!-----------------------------------------------------------------------
/
!-----------------------------------------------------------------------
&namsbc_blk    !   namsbc_blk  generic Bulk formula                     (ln_blk =T)
!-----------------------------------------------------------------------
/
!-----------------------------------------------------------------------
&namsbc_cpl    !   coupled ocean/atmosphere model                       ("key_oasis3")
!-----------------------------------------------------------------------
/
!-----------------------------------------------------------------------
&namsbc_sas    !   Stand-Alone Surface module: ocean data               (SAS_SRC  only)
!-----------------------------------------------------------------------
/
!-----------------------------------------------------------------------
&namsbc_iif    !   Ice-IF : use observed ice cover                      (nn_ice = 1)
!-----------------------------------------------------------------------
/
!-----------------------------------------------------------------------
&namtra_qsr    !   penetrative solar radiation                          (ln_traqsr =T)
!-----------------------------------------------------------------------
   ln_qsr_rgb  = .true.      !  RGB light penetration (Red-Green-Blue)
/
!-----------------------------------------------------------------------
&namsbc_ssr    !   surface boundary condition : sea surface restoring   (ln_ssr =T)
!-----------------------------------------------------------------------
/
!-----------------------------------------------------------------------
&namsbc_rnf    !   runoffs                                              (ln_rnf =T)
!-----------------------------------------------------------------------
/
!-----------------------------------------------------------------------
&namsbc_apr    !   Atmospheric pressure used as ocean forcing           (ln_apr_dyn =T)
!-----------------------------------------------------------------------
/
!-----------------------------------------------------------------------
&namsbc_isf    !  Top boundary layer (ISF)                              (ln_isfcav =T : read (ln_read_cfg=T)
!-----------------------------------------------------------------------             or set or usr_def_zgr )
/
!-----------------------------------------------------------------------
&namsbc_iscpl  !   land ice / ocean coupling option                     (ln_isfcav =T : read (ln_read_cfg=T)
!-----------------------------------------------------------------------             or set or usr_def_zgr )
/
!-----------------------------------------------------------------------
&namsbc_wave   ! External fields from wave model                        (ln_wave=T)
!-----------------------------------------------------------------------
/
!-----------------------------------------------------------------------
&namberg       !   iceberg parameters                                   (default: OFF)
!-----------------------------------------------------------------------
/
!!======================================================================
!!               ***  Lateral boundary condition  ***                 !!
!!                                                                    !!
!!   namlbc        lateral momentum boundary condition                  (default: NO selection)
!!   namagrif      agrif nested grid   (read by child model only)       ("key_agrif")
!!   nam_tide      Tidal forcing                                        (default: OFF)
!!   nambdy        Unstructured open boundaries                         (default: OFF)
!!   nambdy_dta    Unstructured open boundaries - external data         (see  nambdy)
!!   nambdy_tide   tidal forcing at open boundaries                     (default: OFF)
!!======================================================================
!
!-----------------------------------------------------------------------
&namlbc        !   lateral momentum boundary condition                  (default: NO selection)
!-----------------------------------------------------------------------
   rn_shlat    =    2.     !  no slip
/
!-----------------------------------------------------------------------
&namagrif      !  AGRIF zoom                                            ("key_agrif")
!-----------------------------------------------------------------------
/
!-----------------------------------------------------------------------
&nam_tide      !   tide parameters                                      (default: OFF)
!-----------------------------------------------------------------------
/
!-----------------------------------------------------------------------
&nambdy        !  unstructured open boundaries                          (default: OFF)
!-----------------------------------------------------------------------
/
!-----------------------------------------------------------------------
&nambdy_dta    !  open boundaries - external data                       (see nam_bdy)
!-----------------------------------------------------------------------
/
!-----------------------------------------------------------------------
&nambdy_tide   !  tidal forcing at open boundaries                      (default: OFF)
!-----------------------------------------------------------------------
/
!!======================================================================
!!                ***  Top/Bottom boundary condition  ***             !!
!!                                                                    !!
!!   namdrg        top/bottom drag coefficient                          (default: NO selection)
!!   namdrg_top    top    friction                                      (ln_OFF=F & ln_isfcav=T)
!!   namdrg_bot    bottom friction                                      (ln_OFF=F)
!!   nambbc        bottom temperature boundary condition                (default: OFF)
!!   nambbl        bottom boundary layer scheme                         (default: OFF)
!!======================================================================
!
!
!-----------------------------------------------------------------------
&namdrg        !   top/bottom drag coefficient                          (default: NO selection)
!-----------------------------------------------------------------------
   ln_drg_OFF  = .true.   !  must select one drag coefficient to true even if we don't use it
/
!-----------------------------------------------------------------------
&namdrg_top    !   TOP friction                                         (ln_drg_OFF =F & ln_isfcav=T)
!-----------------------------------------------------------------------
/
!-----------------------------------------------------------------------
&namdrg_bot    !   BOTTOM friction                                      (ln_drg_OFF =F)
!-----------------------------------------------------------------------
/
!-----------------------------------------------------------------------
&nambbc        !   bottom temperature boundary condition                (default: OFF)
!-----------------------------------------------------------------------
/
!-----------------------------------------------------------------------
&nambbl        !   bottom boundary layer scheme                         (default: OFF)
!-----------------------------------------------------------------------
/
!!======================================================================
!!                        Tracer (T-S) namelists                      !!
!!                                                                    !!
!!   nameos        equation of state                                    (default: NO selection)
!!   namtra_adv    advection scheme                                     (default: NO selection)
!!   namtra_ldf    lateral diffusion scheme                             (default: NO selection)
!!   namtra_mle    mixed layer eddy param. (Fox-Kemper param.)          (default: OFF)
!!   namtra_eiv    eddy induced velocity param.                         (default: OFF)
!!   namtra_dmp    T & S newtonian damping                              (default: OFF)
!!======================================================================
!
!-----------------------------------------------------------------------
&nameos        !   ocean Equation Of Seawater                           (default: NO selection)
!-----------------------------------------------------------------------
   ln_eos80    = .true.         !  = Use EOS80
/
!-----------------------------------------------------------------------
&namtra_adv    !   advection scheme for tracer                          (default: NO selection)
!-----------------------------------------------------------------------
/
!-----------------------------------------------------------------------
&namtra_ldf    !   lateral diffusion scheme for tracers                 (default: NO selection)
!-----------------------------------------------------------------------
   !                       !  Operator type:
   ln_traldf_lap   = .true.   !    laplacian operator
   !
   !                       !  Direction of action:
   ln_traldf_iso   = .true.   !  iso-neutral (standard operator)
   !
   !                       !  Coefficients:
   nn_aht_ijk_t    = 20         !  space/time variation of eddy coefficient:
      !                             !   =-20 (=-30)    read in eddy_diffusivity_2D.nc (..._3D.nc) file
      !                             !   =  0           constant
      !                             !   = 10 F(k)      =ldf_c1d
      !                             !   = 20 F(i,j)    =ldf_c2d
      !                             !   = 21 F(i,j,t)  =Treguier et al. JPO 1997 formulation
      !                             !   = 30 F(i,j,k)  =ldf_c2d * ldf_c1d
      !                             !   = 31 F(i,j,k,t)=F(local velocity and grid-spacing)
      !                        !  time invariant coefficients:  aht0 = 1/2  Ud*Ld   (lap case)
      !                             !                           or   = 1/12 Ud*Ld^3 (blp case)
      rn_Ud        = 0.018           !  lateral diffusive velocity [m/s] (nn_aht_ijk_t= 0, 10, 20, 30)
      rn_Ld        = 200.e+3        !  lateral diffusive length   [m]   (nn_aht_ijk_t= 0, 10)
/
!-----------------------------------------------------------------------
&namtra_mle    !   mixed layer eddy parametrisation (Fox-Kemper)        (default: OFF)
!-----------------------------------------------------------------------
/
!-----------------------------------------------------------------------
&namtra_eiv    !   eddy induced velocity param.                         (default: OFF)
!-----------------------------------------------------------------------
/
!-----------------------------------------------------------------------
&namtra_dmp    !   tracer: T & S newtonian damping                      (default: OFF)
!-----------------------------------------------------------------------
/
!-----------------------------------------------------------------------
&nam_vvl       !   vertical coordinate options                          (default: z-star)
!-----------------------------------------------------------------------
/
                                                                                                                                                                                                    232,1         59%
!-----------------------------------------------------------------------
/
!-----------------------------------------------------------------------
&namdyn_adv    !   formulation of the momentum advection                (default: NO selection)
!-----------------------------------------------------------------------
/
!-----------------------------------------------------------------------
&namdyn_vor    !   Vorticity / Coriolis scheme                          (default: NO selection)
!-----------------------------------------------------------------------
/
!-----------------------------------------------------------------------
&namdyn_hpg    !   Hydrostatic pressure gradient option                 (default: NO selection)
!-----------------------------------------------------------------------
/
!-----------------------------------------------------------------------
&namdyn_spg    !   surface pressure gradient                            (default: NO selection)
!-----------------------------------------------------------------------
/
!-----------------------------------------------------------------------
&namdyn_ldf    !   lateral diffusion on momentum                        (default: NO selection)
!-----------------------------------------------------------------------
/
!-----------------------------------------------------------------------
&namdta_dyn    !   offline ocean input files                            (OFF_SRC only)
!-----------------------------------------------------------------------
   ln_dynrnf       =  .false.    !  runoffs option enabled (T) or not (F)
   ln_dynrnf_depth =  .false.    !  runoffs is spread in vertical (T) or not (F)
   !
   cn_dir      = './'      !  root directory for the ocean data location
   !___________!_________________________!___________________!___________!_____________!________!___________!__________________!__________!_______________!
   !           !  file name              ! frequency (hours) ! variable  ! time interp.!  clim  ! 'yearly'/ ! weights filename ! rotation ! land/sea mask !
   !           !                         !  (if <0  months)  !   name    !   (logical) !  (T/F) ! 'monthly' !                  ! pairing  !    filename   !
   sn_tem      = 'dyna_grid_T'           ,       120.        , 'votemper'  ,  .true.   , .true. , 'yearly'  , ''               , ''       , ''
   sn_sal      = 'dyna_grid_T'           ,       120.        , 'vosaline'  ,  .true.   , .true. , 'yearly'  , ''               , ''       , ''
   sn_mld      = 'dyna_grid_T'           ,       120.        , 'somixhgt'  ,  .true.   , .true. , 'yearly'  , ''               , ''       , ''
   sn_emp      = 'dyna_grid_T'           ,       120.        , 'sowaflcd'  ,  .true.   , .true. , 'yearly'  , ''               , ''       , ''
   sn_fmf      = 'dyna_grid_T'           ,       120.        , 'iowaflup'  ,  .true.   , .true. , 'yearly'  , ''               , ''       , ''
   sn_ice      = 'dyna_grid_T'           ,       120.        , 'soicecov'  ,  .true.   , .true. , 'yearly'  , ''               , ''       , ''
   sn_qsr      = 'dyna_grid_T'           ,       120.        , 'soshfldo'  ,  .true.   , .true. , 'yearly'  , ''               , ''       , ''
   sn_wnd      = 'dyna_grid_T'           ,       120.        , 'sowindsp'  ,  .true.   , .true. , 'yearly'  , ''               , ''       , ''
   sn_uwd      = 'dyna_grid_U'           ,       120.        , 'uocetr_eff',  .true.   , .true. , 'yearly'  , ''               , ''       , ''
   sn_vwd      = 'dyna_grid_V'           ,       120.        , 'vocetr_eff',  .true.   , .true. , 'yearly'  , ''               , ''       , ''
   sn_wwd      = 'dyna_grid_W'           ,       120.        , 'wocetr_eff',  .true.   , .true. , 'yearly'  , ''               , ''       , ''
   sn_avt      = 'dyna_grid_W'           ,       120.        , 'voddmavs'  ,  .true.   , .true. , 'yearly'  , ''               , ''       , ''
   sn_ubl      = 'dyna_grid_U'           ,       120.        , 'sobblcox'  ,  .true.   , .true. , 'yearly'  , ''               , ''       , ''
   sn_vbl      = 'dyna_grid_V'           ,       120.        , 'sobblcoy'  ,  .true.   , .true. , 'yearly'  , ''               , ''       , ''
/
!!======================================================================
!!                     vertical physics namelists                     !!
!!                                                                    !!
!!    namzdf        vertical physics manager                            (default: NO selection)
!!    namzdf_ric    richardson number vertical mixing                   (ln_zdfric=T)
!!    namzdf_tke    TKE vertical mixing                                 (ln_zdftke=T)
!!    namzdf_gls    GLS vertical mixing                                 (ln_zdfgls=T)
!!    namzdf_osm    OSM vertical diffusion                              (ln_zdfosm=T)
!!    namzdf_iwm    tidal mixing parameterization                       (ln_zdfiwm=T)
!!======================================================================
!
!
!-----------------------------------------------------------------------
&namzdf        !   vertical physics manager                             (default: NO selection)
!-----------------------------------------------------------------------
   ln_zdfcst   = .true.      !  must select one vertical physics to true even if we don't use it
/
!-----------------------------------------------------------------------
&namzdf_ric    !   richardson number dependent vertical diffusion       (ln_zdfric =T)
!-----------------------------------------------------------------------
/
                                                                                                                                                                                                    297,1         75%
!-----------------------------------------------------------------------
/
!-----------------------------------------------------------------------
&namzdf_tke    !   turbulent eddy kinetic dependent vertical diffusion  (ln_zdftke =T)
!-----------------------------------------------------------------------
/
!-----------------------------------------------------------------------
&namzdf_gls    !   GLS vertical diffusion                               (ln_zdfgls =T)
!-----------------------------------------------------------------------
/
!-----------------------------------------------------------------------
&namzdf_osm    !   OSM vertical diffusion                               (ln_zdfosm =T)
!-----------------------------------------------------------------------
/
!-----------------------------------------------------------------------
&namzdf_iwm    !    internal wave-driven mixing parameterization        (ln_zdfiwm =T)
!-----------------------------------------------------------------------
/
!!======================================================================
!!                  ***  Diagnostics namelists  ***                   !!
!!                                                                    !!
!!   namtrd       dynamics and/or tracer trends                         (default: OFF)
!!   namptr       Poleward Transport Diagnostics                        (default: OFF)
!!   namhsb       Heat and salt budgets                                 (default: OFF)
!!   namdiu       Cool skin and warm layer models                       (default: OFF)
!!   namdiu       Cool skin and warm layer models                       (default: OFF)
!!   namflo       float parameters                                      (default: OFF)
!!   nam_diaharm  Harmonic analysis of tidal constituents               (default: OFF)
!!   nam_diadct   transports through some sections                      (default: OFF)
!!   nam_diatmb   Top Middle Bottom Output                              (default: OFF)
!!   nam_dia25h   25h Mean Output                                       (default: OFF)
!!   namnc4       netcdf4 chunking and compression settings             ("key_netcdf4")
!!======================================================================
!
!-----------------------------------------------------------------------
&namtrd        !   trend diagnostics                                    (default: OFF)
!-----------------------------------------------------------------------
/
!-----------------------------------------------------------------------
&namhsb        !  Heat and salt budgets                                 (default: OFF)
!-----------------------------------------------------------------------
/
!-----------------------------------------------------------------------
&namdiu        !   Cool skin and warm layer models                      (default: OFF)
!-----------------------------------------------------------------------
/
!-----------------------------------------------------------------------
&namflo        !   float parameters                                     (default: OFF)
!-----------------------------------------------------------------------
/
!-----------------------------------------------------------------------
&nam_diadct    !   transports through some sections                     (default: OFF)
!-----------------------------------------------------------------------
/
!-----------------------------------------------------------------------
&nam_dia25h    !  25h Mean Output                                       (default: OFF)
!-----------------------------------------------------------------------
/
!-----------------------------------------------------------------------
&namnc4        !   netcdf4 chunking and compression settings            ("key_netcdf4")
!-----------------------------------------------------------------------
/
!!======================================================================
!!               ***  Observation & Assimilation  ***                 !!
!!                                                                    !!
!!   namobs       observation and model comparison                      (default: OFF)
!!   nam_asminc   assimilation increments                               ('key_asminc')
!!======================================================================
!
!-----------------------------------------------------------------------
&namobs        !  observation usage switch                              (default: OFF)
!-----------------------------------------------------------------------
/
!-----------------------------------------------------------------------
&nam_asminc    !   assimilation increments                              ('key_asminc')
!-----------------------------------------------------------------------
/
!!======================================================================
!!                  ***  Miscellaneous namelists  ***                 !!
!!                                                                    !!
!!   nammpp            Massively Parallel Processing
!!   namctl            Control prints                                   (default: OFF)
!!   namsto            Stochastic parametrization of EOS                (default: OFF)
!!======================================================================
!
!-----------------------------------------------------------------------
&nammpp        !   Massively Parallel Processing
!-----------------------------------------------------------------------
/
!-----------------------------------------------------------------------
&namctl        !   Control prints                                       (default: OFF)
!-----------------------------------------------------------------------
/