!!>>>>>>>>>>>>>>>>>>>>>>>>>>>>>>>>>>>>>>>>>>>>>>>>>>>>>>>>>>>>>>>>>>>>>>
!! NEMO/TOP1 :  Configuration namelist : used to overwrite defaults values defined in SHARED/namelist_top_ref
!>>>>>>>>>>>>>>>>>>>>>>>>>>>>>>>>>>>>>>>>>>>>>>>>>>>>>>>>>>>>>>>>>>>>>>>
!-----------------------------------------------------------------------
&namtrc_run      !   run information
!-----------------------------------------------------------------------
   ln_rsttr      = _AUTO_
   nn_rsttr      = _AUTO_
   ln_top_euler  = .true.
/
!-----------------------------------------------------------------------
&namtrc          !   tracers definition
!-----------------------------------------------------------------------
   jp_bgc        =  0
!
   ln_pisces     =  .false.
   ln_my_trc     =  .false.
   ln_age        =  _AUTO_
   ln_cfc11      =  _AUTO_ 
   ln_cfc12      =  _AUTO_
   ln_c14        =  .true.
/
!-----------------------------------------------------------------------
&namage          !   AGE 
!-----------------------------------------------------------------------
/
!-----------------------------------------------------------------------
&namtrc_dta      !    Initialisation from data input file
!-----------------------------------------------------------------------
/
!-----------------------------------------------------------------------
&namtrc_adv      !   advection scheme for passive tracer                (default: NO selection)
!-----------------------------------------------------------------------
   ln_trcadv_fct =  .true.  !  FCT scheme
      nn_fct_h   =  2               !  =2/4, horizontal 2nd / 4th order 
      nn_fct_v   =  2               !  =2/4, vertical   2nd / COMPACT 4th order 
/
!-----------------------------------------------------------------------
&namtrc_ldf      !   lateral diffusion scheme for passive tracer        (default: NO selection)
!-----------------------------------------------------------------------
   ln_trcldf_tra   = .true.      !  use active tracer setting
/
!-----------------------------------------------------------------------
&namtrc_rad      !  treatment of negative concentrations 
!-----------------------------------------------------------------------
/
!-----------------------------------------------------------------------
&namtrc_snk      !  sedimentation of particles
!-----------------------------------------------------------------------
/
!-----------------------------------------------------------------------
&namtrc_dmp      !   passive tracer newtonian damping   
!-----------------------------------------------------------------------
/
!-----------------------------------------------------------------------
&namtrc_ice      !    Representation of sea ice growth & melt effects
!-----------------------------------------------------------------------
/
!-----------------------------------------------------------------------
&namtrc_trd      !   diagnostics on tracer trends                       ('key_trdtrc')
!----------------------------------------------------------------------
/
!----------------------------------------------------------------------
&namtrc_bc       !   data for boundary conditions
!-----------------------------------------------------------------------
/
!----------------------------------------------------------------------
&namtrc_bdy      !   Setup of tracer boundary conditions
!-----------------------------------------------------------------------
/
